Live_GMASP_UFRS/8500-Node_real/real_VLN.Txt

SYMMETRICAL COMPONENT VOLTAGES BY BUS (for 3-phase buses)

Bus                   Mag:   V1 (kV)    p.u.     V2 (kV)   %V2/V1    V0 (kV)    %V0/V1

sourcebus                69.72       1.05  5.457E-007  7.827E-007 4.535E-009 6.505E-009
_hvmv_sub_lsb            7.558       1.05    0.01069     0.1414   0.01429     0.189
hvmv_sub_48332           7.558       1.05    0.01069     0.1414   0.01429     0.189
m1009763                 7.354      1.021    0.09778       1.33    0.1407     1.913
l2673322                 7.363      1.023          0          0         0         0
m1069148                 7.446      1.034          0          0         0         0
l2673309                 7.445      1.034          0          0         0         0
m1069588                 7.444      1.034          0          0         0         0
l2804270                 7.444      1.034          0          0         0         0
m3036164                 7.275       1.01          0          0         0         0
l2935553                 7.274       1.01          0          0         0         0
m1209749                 7.486       1.04          0          0         0         0
l2748840                 7.486       1.04          0          0         0         0
m1108264                 7.522      1.045          0          0         0         0
m1108263                 7.521      1.045          0          0         0         0
l3085398                 7.377      1.025    0.09828      1.332     0.135      1.83
m1026891                 7.374      1.024     0.0987      1.339    0.1349     1.829
l3216367                 7.366      1.023     0.1043      1.417   0.07902     1.073
m1069468                 7.365      1.023     0.1045      1.419   0.07854     1.066
m1142800                 7.384      1.026          0          0         0         0
m1142799                 7.384      1.026          0          0         0         0
m1047592                 7.429      1.032    0.09967      1.342     0.112     1.508
p827512                  7.429      1.032          0          0         0         0
m1047339                 7.408      1.029   0.005458    0.07368   0.05166    0.6974
p895104                  7.369      1.024          0          0         0         0
m1026915                 7.377      1.025    0.09762      1.323    0.1355     1.837
m1026920                 7.376      1.024     0.0974      1.321    0.1358     1.841
n1138596                 7.384      1.026          0          0         0         0
l3254207                 7.384      1.026          0          0         0         0
m1069464                 7.363      1.023     0.1048      1.424   0.07766     1.055
p873787                  7.359      1.022          0          0         0         0
n1144665                 7.435      1.033     0.1002      1.348    0.1032     1.388
m1047515                 7.432      1.032        0.1      1.346    0.1033     1.389
n1137002                 7.412      1.029          0          0         0         0
m1047707                 7.411      1.029          0          0         0         0
l2729406                 7.342       1.02          0          0         0         0
l2897768                 7.341       1.02          0          0         0         0
l3649301                 7.397      1.027          0          0         0         0
l3649302                 7.397      1.027          0          0         0         0
l2970842                 7.537      1.047          0          0         0         0
m1089113                 7.536      1.047          0          0         0         0
m1047312                  7.39      1.027   0.009127     0.1235   0.05838      0.79
p893163                  7.347       1.02          0          0         0         0
l2822871                 7.394      1.027    0.09658      1.306    0.1311     1.773
m1026872                 7.393      1.027    0.09667      1.308    0.1314     1.778
m1026312                 7.273       1.01          0          0         0         0
l2973163                 7.272       1.01          0          0         0         0
l3728038                 7.392      1.027          0          0         0         0
l3728039                 7.392      1.027          0          0         0         0
m1069567                 7.452      1.035          0          0         0         0
m1069582                 7.446      1.034          0          0         0         0
n1140830                 7.301      1.014          0          0         0         0
l3216351                 7.301      1.014          0          0         0         0
l2952007                 7.427      1.032          0          0         0         0
l2861158                 7.426      1.032          0          0         0         0
n1140827                 7.347       1.02    0.07779      1.059    0.1317     1.793
m1026726                 7.347       1.02    0.07779      1.059    0.1317     1.793
l2730106                 7.305      1.015    0.05294     0.7246    0.1373     1.879
n1142099                 7.305      1.015    0.05317     0.7279    0.1378     1.887
m1026658                 7.342       1.02    0.07682      1.046     0.132     1.798
l3172805                   7.3      1.014          0          0         0         0
p895112                  7.316      1.016          0          0         0         0
l3048962                 7.316      1.016          0          0         0         0
l2991914                 7.405      1.029    0.09692      1.309    0.1057     1.428
m1047503                 7.404      1.028    0.09642      1.302    0.1064     1.437
m1047751                 7.382      1.025          0          0         0         0
l2973154                 7.382      1.025          0          0         0         0
l3010565                 7.443      1.034          0          0         0         0
l2897775                 7.443      1.034          0          0         0         0
m1125955                 7.461      1.036          0          0         0         0
m1125957                 7.461      1.036          0          0         0         0
m1069640                 7.428      1.032          0          0         0         0
l2804269                 7.428      1.032          0          0         0         0
m1026702                 7.358      1.022    0.08053      1.094    0.1281     1.742
n1139551                 7.353      1.021    0.07898      1.074    0.1304     1.773
n1136355                 7.479      1.039          0          0         0         0
l2783231                 7.474      1.038          0          0         0         0
l2748143                 7.425      1.031          0          0         0         0
l3251854                 7.425      1.031          0          0         0         0
m1069610                 7.435      1.033          0          0         0         0
m1069600                 7.435      1.033          0          0         0         0
m1069424                 7.351      1.021     0.1073      1.459   0.07098    0.9655
l2935549                  7.35      1.021     0.1076      1.464   0.07012    0.9541
p895089                   7.45      1.035          0          0         0         0
l3235242                  7.45      1.035          0          0         0         0
m1026795                  7.39      1.026    0.09158      1.239    0.1128     1.526
n1140522                 7.371      1.024          0          0         0         0
l3030199                 7.396      1.027    0.02172     0.2936   0.04549    0.6151
m1125934                 7.396      1.027    0.02166     0.2929   0.04525    0.6118
m1069189                 7.476      1.038    0.02375     0.3177   0.01736    0.2322
l2860487                 7.457      1.036          0          0         0         0
221-312488               7.306      1.015    0.05099     0.6979     0.128     1.752
m1089183                 7.306      1.015    0.05099     0.6979     0.128     1.752
m1108464                 7.287      1.012          0          0         0         0
l3102286                 7.287      1.012          0          0         0         0
f739845                  7.379      1.025    0.01223     0.1657   0.06238    0.8453
293471                   7.379      1.025    0.01223     0.1658   0.06238    0.8453
p827499                  7.387      1.026          0          0         0         0
n1139254                 7.387      1.026          0          0         0         0
m1026657                 7.297      1.014          0          0         0         0
m1026656                 7.297      1.014          0          0         0         0
m1108299                 7.371      1.024          0          0         0         0
m1108300                 7.371      1.024          0          0         0         0
l3198355                 7.371      1.024          0          0         0         0
l2805037                 7.371      1.024          0          0         0         0
n1137994                 7.351      1.021          0          0         0         0
m1069484                  7.35      1.021          0          0         0         0
l2860504                 7.302      1.014          0          0         0         0
l2860493                 7.301      1.014          0          0         0         0
m1026783                 7.386      1.026    0.09009       1.22    0.1148     1.555
m1026780                 7.385      1.026    0.08985      1.217    0.1152      1.56
p895111                  7.464      1.037          0          0         0         0
l2895496                 7.464      1.037          0          0         0         0
n1140819                 7.349      1.021    0.07821      1.064    0.1312     1.786
m1026700                 7.348      1.021    0.07812      1.063    0.1313     1.787
m1089173                 7.344       1.02          0          0         0         0
l2935551                 7.343       1.02          0          0         0         0
m1026344                 7.305      1.015          0          0         0         0
m1026364                 7.305      1.015          0          0         0         0
l2879070                 7.424      1.031    0.09893      1.332    0.1148     1.546
l3216345                 7.422      1.031    0.09845      1.327    0.1169     1.575
m1069428                 7.353      1.021      0.107      1.455   0.07166    0.9746
n1139257                 7.341       1.02          0          0         0         0
l2991919                 7.302      1.014          0          0         0         0
m1026361                 7.301      1.014          0          0         0         0
n1147857                 7.307      1.015          0          0         0         0
m1009742                 7.306      1.015          0          0         0         0
q14412                   7.403      1.028   0.006339    0.08562    0.0535    0.7226
m1047325                 7.402      1.028   0.006595    0.08909   0.05401    0.7297
n1139263                 7.392      1.027          0          0         0         0
l3048227                 7.392      1.027          0          0         0         0
p827506                  7.392      1.027          0          0         0         0
m1069469                 7.392      1.027          0          0         0         0
m1027019                 7.369      1.024          0          0         0         0
l2785522                 7.369      1.024          0          0         0         0
l3216338                 7.329      1.018          0          0         0         0
l2973146                 7.329      1.018          0          0         0         0
m3037452                 7.296      1.013          0          0         0         0
l2973164                 7.296      1.013          0          0         0         0
l3120376                 7.368      1.023          0          0         0         0
m1026925                 7.367      1.023          0          0         0         0
m1047612                 7.435      1.033          0          0         0         0
p828360                  7.435      1.033          0          0         0         0
m1089195                  7.45      1.035          0          0         0         0
l3141393                  7.45      1.035          0          0         0         0
m1026946                  7.38      1.025          0          0         0         0
m1026940                 7.379      1.025          0          0         0         0
m1047471                 7.243      1.006          0          0         0         0
l3216349                 7.243      1.006          0          0         0         0
m1047401                 7.264      1.009          0          0         0         0
l2748132                 7.264      1.009          0          0         0         0
l3122820                 7.283      1.012          0          0         0         0
l3141398                 7.283      1.012          0          0         0         0
m1108360                 7.393      1.027          0          0         0         0
l3048968                 7.393      1.027          0          0         0         0
l2801950                  7.43      1.032          0          0         0         0
m1069224                  7.43      1.032          0          0         0         0
l2766746                 7.351      1.021          0          0         0         0
m1027073                  7.35      1.021          0          0         0         0
m1142873                 7.464      1.037          0          0         0         0
m1069181                 7.439      1.033          0          0         0         0
l2973151                 7.438      1.033          0          0         0         0
l3179682                 7.448      1.034          0          0         0         0
l2786274                 7.448      1.034          0          0         0         0
l3066816                   7.3      1.014          0          0         0         0
m1026667                   7.3      1.014          0          0         0         0
m1108529                 7.508      1.043    0.08117      1.081   0.07291    0.9711
m1108532                 7.507      1.043    0.08113      1.081   0.07325    0.9757
l2766723                 7.301      1.014          0          0         0         0
l3122822                 7.301      1.014          0          0         0         0
l2673312                 7.299      1.014          0          0         0         0
l3235247                 7.299      1.014          0          0         0         0
m1166391                 7.437      1.033          0          0         0         0
l3254873                 7.434      1.033          0          0         0         0
l2861157                 7.463      1.037          0          0         0         0
p901951                   7.46      1.036          0          0         0         0
m1047346                 7.415       1.03   0.004682    0.06315   0.04884    0.6587
m1047345                 7.413       1.03   0.004803    0.06479   0.04958    0.6689
l2989596                 7.458      1.036          0          0         0         0
l2822873                 7.458      1.036          0          0         0         0
m1108328                 7.432      1.032          0          0         0         0
l2875754                 7.432      1.032          0          0         0         0
l2786204                 7.505      1.042          0          0         0         0
m1209819                 7.502      1.042          0          0         0         0
p901972                  7.306      1.015          0          0         0         0
m1009726                 7.304      1.014          0          0         0         0
m1047702                 7.412      1.029          0          0         0         0
n1137001                 7.412      1.029          0          0         0         0
l2767340                  7.33      1.018    0.04403     0.6006    0.1147     1.565
m3037449                  7.33      1.018    0.04403     0.6006    0.1147     1.565
m1047457                 7.248      1.007          0          0         0         0
l2710546                 7.248      1.007          0          0         0         0
l2674027                 7.288      1.012     0.0587     0.8054    0.1516      2.08
l2692633                 7.286      1.012    0.05932     0.8141    0.1532     2.102
n1142108                  7.35      1.021          0          0         0         0
l2674051                  7.35      1.021          0          0         0         0
m1069135                 7.426      1.031   0.004964    0.06685   0.04438    0.5976
r18242                   7.424      1.031   0.004752      0.064    0.0455    0.6128
m1047534                 7.483      1.039     0.1032       1.38    0.0993     1.327
n1136663                 7.471      1.038     0.1025      1.372    0.1009     1.351
m1108508                 7.451      1.035          0          0         0         0
l3097861                  7.45      1.035          0          0         0         0
m1069560                 7.456      1.036          0          0         0         0
l2973153                 7.421      1.031     0.1062      1.431    0.1062     1.431
n1136998                  7.42      1.031     0.1063      1.432    0.1063     1.432
l2898515                 7.488       1.04          0          0         0         0
m1166387                 7.488       1.04          0          0         0         0
m1047442                 7.268       1.01          0          0         0         0
l3235250                 7.268       1.01          0          0         0         0
m1142871                  7.38      1.025    0.02927     0.3966   0.07198    0.9753
m1142874                 7.379      1.025    0.02969     0.4024   0.07321    0.9921
l2955081                 7.391      1.027    0.02042     0.2763   0.03874    0.5241
m1108315                 7.391      1.027    0.02028     0.2744   0.03804    0.5147
l2973162                 7.356      1.022    0.02368     0.3219   0.07968     1.083
m1026333                 7.355      1.022    0.02433     0.3308   0.08051     1.095
m1009832                 7.335      1.019          0          0         0         0
l2860479                 7.335      1.019          0          0         0         0
m1026854                 7.407      1.029    0.09659      1.304    0.1264     1.706
p901894                  7.378      1.025          0          0         0         0
m1026485                  7.37      1.024          0          0         0         0
m1026492                  7.37      1.024          0          0         0         0
d6413567-3_int           7.468      1.037    0.02089     0.2797   0.02013    0.2695
e182724                  7.468      1.037    0.02087     0.2795   0.02014    0.2696
n1139541                 7.469      1.037    0.02118     0.2836   0.01981    0.2653
m4122658                 7.311      1.015    0.05102     0.6979    0.1327     1.815
l2933135                 7.311      1.015    0.05104     0.6981    0.1327     1.815
l2729414                 7.358      1.022    0.08053      1.094    0.1281     1.742
l2729430                 7.359      1.022          0          0         0         0
l2766742                 7.355      1.022          0          0         0         0
m1026972                 7.276      1.011          0          0         0         0
l2860483                 7.276      1.011          0          0         0         0
l2860490                 7.419      1.031   0.004563     0.0615   0.04718    0.6359
l3104134                 7.417       1.03   0.004605    0.06209   0.04812    0.6489
m1089144                 7.271       1.01          0          0         0         0
p827522                  7.271       1.01          0          0         0         0
m1089118                 7.498      1.042    0.02626     0.3502   0.01696    0.2262
l3048208                  7.49       1.04          0          0         0         0
m1108505                 7.293      1.013    0.05706     0.7823    0.1473      2.02
l2955047                 7.292      1.013    0.05756     0.7894    0.1486     2.038
m1089148                 7.269       1.01          0          0         0         0
l2766721                 7.269       1.01          0          0         0         0
m1026745                  7.24      1.006          0          0         0         0
l3029183                  7.24      1.006          0          0         0         0
l2710512                 7.257      1.008          0          0         0         0
m1047828                 7.254      1.008          0          0         0         0
m1047342                 7.376      1.025          0          0         0         0
l3197645                 7.376      1.025          0          0         0         0
m1069192                 7.442      1.034          0          0         0         0
l3235253                 7.442      1.034          0          0         0         0
l3214071                 7.356      1.022    0.03598     0.4891   0.09144     1.243
m1125952                 7.354      1.021    0.03661     0.4978   0.09325     1.268
m1027101                 7.255      1.008          0          0         0         0
l2860480                 7.255      1.008          0          0         0         0
l2710517                 7.285      1.012          0          0         0         0
m1026646                 7.284      1.012          0          0         0         0
m1069662                 7.427      1.032          0          0         0         0
l2935547                 7.427      1.032          0          0         0         0
m1026931                 7.363      1.023          0          0         0         0
l3216336                 7.363      1.023          0          0         0         0
l3142049                 7.302      1.014    0.05414     0.7415    0.1402      1.92
m1108493                 7.299      1.014    0.05503     0.7539    0.1423      1.95
m1069169                 7.464      1.037    0.01903      0.255   0.02222    0.2976
l3010556                 7.461      1.036    0.01773     0.2376   0.02327    0.3119
l2991933                 7.397      1.027          0          0         0         0
l3122837                 7.397      1.027          0          0         0         0
l2691936                 7.363      1.023          0          0         0         0
l2897772                 7.343       1.02          0          0         0         0
l3101814                 7.343       1.02          0          0         0         0
l2766732                  7.37      1.024          0          0         0         0
l2989564                 7.427      1.032          0          0         0         0
m1126016                 7.131     0.9904          0          0         0         0
l3120534                  7.13     0.9904          0          0         0         0
m1026330                 7.354      1.021    0.02562     0.3484   0.08214     1.117
l2766726                 7.304      1.014          0          0         0         0
p901912                  7.423      1.031          0          0         0         0
l3195365                 7.423      1.031          0          0         0         0
m1108381                 7.308      1.015    0.05094      0.697    0.1279      1.75
l3254237                 7.307      1.015    0.05095     0.6973     0.128     1.752
l2804262                 7.376      1.025          0          0         0         0
l2841639                 7.374      1.024          0          0         0         0
n1230123                 7.298      1.014          0          0         0         0
l2708744                 7.297      1.014          0          0         0         0
m1069519                 7.455      1.035    0.08098      1.086    0.1087     1.458
p901927                  7.485       1.04          0          0         0         0
l2897790                 7.457      1.036          0          0         0         0
l2935566                 7.457      1.036          0          0         0         0
l3216337                 7.363      1.023          0          0         0         0
p901931                  7.458      1.036          0          0         0         0
m1069548                 7.458      1.036          0          0         0         0
m1010013                 7.248      1.007          0          0         0         0
l3120503                 7.248      1.007          0          0         0         0
m1089145                 7.311      1.016     0.0249     0.3405    0.0472    0.6456
l3215385                 7.311      1.016     0.0249     0.3406   0.04721    0.6457
m1026852                 7.403      1.028    0.09649      1.303    0.1279     1.727
m1069420                 7.348      1.021      0.108      1.469   0.06919    0.9416
l3157708                 7.403      1.028          0          0         0         0
n1137991                 7.403      1.028          0          0         0         0
m1108413                  7.18     0.9972          0          0         0         0
m1108460                 7.178      0.997          0          0         0         0
p827532                  7.362      1.023          0          0         0         0
m1047326                 7.362      1.023          0          0         0         0
e182732                  7.373      1.024    0.08555       1.16    0.1211     1.643
m1026760                 7.372      1.024    0.08544      1.159    0.1213     1.645
l3048205                 7.386      1.026          0          0         0         0
m1108361                 7.377      1.025          0          0         0         0
m3036169                 7.287      1.012          0          0         0         0
l2673317                 7.287      1.012          0          0         0         0
l3178981                 7.414       1.03          0          0         0         0
m1047368                 7.405      1.029          0          0         0         0
n1136354                 7.454      1.035    0.08163      1.095    0.1095     1.469
l2879794                 7.341       1.02          0          0         0         0
m1142811                 7.341       1.02          0          0         0         0
m1069565                 7.458      1.036          0          0         0         0
l2785536                 7.458      1.036          0          0         0         0
l3104114                 7.345       1.02          0          0         0         0
m1009824                 7.342       1.02          0          0         0         0
l2745848                 7.372      1.024     0.1032        1.4   0.08207     1.113
l2673308                  7.37      1.024     0.1034      1.403    0.0814     1.104
l2991939                 7.368      1.023     0.1039      1.411   0.08009     1.087
l2916606                 7.399      1.028          0          0         0         0
l2822864                 7.399      1.028          0          0         0         0
m1142851                 7.398      1.028     0.0246     0.3325   0.05841    0.7895
196-31070                7.398      1.028    0.02475     0.3345   0.05884    0.7954
m1209822                 7.476      1.038          0          0         0         0
m1209823                 7.474      1.038          0          0         0         0
m1069550                 7.461      1.036          0          0         0         0
m1069551                 7.461      1.036          0          0         0         0
l3141397                 7.276      1.011          0          0         0         0
l3649299                 7.398      1.028          0          0         0         0
m3772794                 7.398      1.028          0          0         0         0
p895106                  7.331      1.018          0          0         0         0
l3048887                  7.33      1.018          0          0         0         0
m1047824                 7.259      1.008          0          0         0         0
m1047834                 7.256      1.008          0          0         0         0
m1069350                 7.333      1.019     0.1105      1.506   0.05581    0.7611
n1144668                 7.333      1.019     0.1104      1.506   0.05529     0.754
l2879072                 7.279      1.011          0          0         0         0
m1047441                  7.27       1.01          0          0         0         0
m1108274                 7.524      1.045          0          0         0         0
m1108269                 7.524      1.045          0          0         0         0
l3235244                 7.381      1.025          0          0         0         0
m1069398                 7.381      1.025          0          0         0         0
n1147862                 7.329      1.018          0          0         0         0
l2685805                 7.329      1.018          0          0         0         0
m1069247                 7.389      1.026          0          0         0         0
m1069248                 7.389      1.026          0          0         0         0
l2786273                 7.524      1.045          0          0         0         0
m1108278                 7.523      1.045          0          0         0         0
l3254238                 7.383      1.025    0.01134     0.1536    0.0612    0.8289
m1047303                  7.38      1.025    0.01223     0.1657   0.06238    0.8453
m1047633                 7.433      1.032          0          0         0         0
l2897554                 7.433      1.032          0          0         0         0
m1069627                 7.426      1.031          0          0         0         0
l2897791                 7.425      1.031          0          0         0         0
m1089097                 7.527      1.045          0          0         0         0
m1108270                 7.526      1.045          0          0         0         0
n1142101                 7.158     0.9943          0          0         0         0
l2936214                 7.158     0.9943          0          0         0         0
l3066810                 7.335      1.019          0          0         0         0
l2897769                 7.334      1.019          0          0         0         0
m1209758                 7.487       1.04          0          0         0         0
m1209753                 7.487       1.04          0          0         0         0
m1047528                 7.452      1.035     0.1016      1.364    0.1042     1.398
l2858166                 7.451      1.035     0.1016      1.364    0.1043     1.399
m1142843                 7.404      1.028    0.02316     0.3129   0.05425    0.7327
l3081380                 7.403      1.028      0.023     0.3106   0.05307    0.7168
l2804272                 7.461      1.036          0          0         0         0
l2841641                 7.461      1.036          0          0         0         0
m1069393                 7.296      1.013          0          0         0         0
m1069408                 7.292      1.013          0          0         0         0
n1142104                 7.296      1.013    0.05631     0.7719    0.1455     1.994
m1108500                 7.294      1.013    0.05679     0.7785    0.1467     2.011
l3216348                 7.265      1.009          0          0         0         0
l2841627                 7.264      1.009          0          0         0         0
l2916599                 7.367      1.023          0          0         0         0
m1047447                  7.26      1.008          0          0         0         0
l2954349                  7.26      1.008          0          0         0         0
l3235246                 7.259      1.008          0          0         0         0
m1125911                 7.379      1.025          0          0         0         0
l2711224                 7.378      1.025          0          0         0         0
n1147863                 7.404      1.028          0          0         0         0
l3122817                 7.404      1.028          0          0         0         0
m1186061                 7.477      1.039    0.01085     0.1451   0.02766      0.37
l2861223                 7.488       1.04          0          0         0         0
m1069130                 7.394      1.027          0          0         0         0
l3085396                 7.394      1.027          0          0         0         0
e182730                  7.352      1.021          0          0         0         0
n1142109                 7.352      1.021          0          0         0         0
m1069417                 7.341       1.02     0.1094       1.49   0.06553    0.8926
n1138597                 7.341       1.02     0.1095      1.492   0.06522    0.8884
m1026987                 7.272       1.01          0          0         0         0
m1026990                 7.271       1.01          0          0         0         0
m1142832                 7.401      1.028    0.02263     0.3057   0.05072    0.6853
l3160865                 7.401      1.028    0.02254     0.3046   0.05018    0.6781
l2673323                 7.397      1.027          0          0         0         0
m1009809                 7.397      1.027          0          0         0         0
l2822869                 7.401      1.028    0.09527      1.287    0.1078     1.457
m1026808                 7.397      1.027    0.09401      1.271    0.1095      1.48
m1047825                  7.25      1.007          0          0         0         0
m1069731                 7.248      1.007          0          0         0         0
n1140520                 7.379      1.025          0          0         0         0
l2729410                 7.379      1.025          0          0         0         0
l3178978                  7.28      1.011          0          0         0         0
m1069384                 7.382      1.025          0          0         0         0
l3066805                 7.382      1.025          0          0         0         0
m4362181                 7.247      1.007          0          0         0         0
m1047319                 7.444      1.034          0          0         0         0
m1047318                 7.444      1.034          0          0         0         0
l3216358                 7.358      1.022          0          0         0         0
m1026826                 7.357      1.022          0          0         0         0
m1108276                 7.524      1.045          0          0         0         0
m1089198                 7.483      1.039    0.07981      1.067   0.08747     1.169
m1089201                 7.478      1.039    0.07968      1.066   0.09054     1.211
m1047763                 7.379      1.025     0.1252      1.697    0.1194     1.618
n1136027                 7.384      1.026          0          0         0         0
l3101827                  7.45      1.035          0          0         0         0
m1108540                 7.448      1.034          0          0         0         0
m1026335                 7.305      1.015          0          0         0         0
l2804259                 7.305      1.015          0          0         0         0
n1136357                 7.458      1.036          0          0         0         0
m1047513                 7.419       1.03     0.0991      1.336    0.1035     1.395
m1047507                  7.41      1.029    0.09852       1.33    0.1037     1.399
m1142863                 7.392      1.027    0.02618     0.3541   0.06294    0.8514
n1141480                 7.467      1.037          0          0         0         0
m1125916                  7.38      1.025          0          0         0         0
l2879767                  7.38      1.025          0          0         0         0
l3066809                 7.346       1.02          0          0         0         0
m1069487                 7.345       1.02          0          0         0         0
m1142818                 7.397      1.027    0.02203     0.2977   0.04717    0.6376
p829965                  7.397      1.027    0.02219        0.3   0.04743    0.6413
q14733                   7.509      1.043      0.105      1.398   0.09585     1.276
m1047568                 7.508      1.043     0.1049      1.397   0.09605     1.279
m1047322                 7.362      1.023          0          0         0         0
l2954338                 7.342       1.02          0          0         0         0
m1047409                 7.267      1.009          0          0         0         0
l2841648                 7.266      1.009          0          0         0         0
m1089177                 7.342       1.02          0          0         0         0
m1026951                  7.38      1.025          0          0         0         0
l2954347                  7.38      1.025          0          0         0         0
m4122657                 7.433      1.032          0          0         0         0
l3027124                 7.432      1.032          0          0         0         0
m1069419                 7.344       1.02     0.1089      1.483   0.06683      0.91
m1069418                 7.343       1.02     0.1091      1.485   0.06636    0.9037
m1026824                 7.358      1.022     0.1007      1.368    0.1356     1.842
p859694                  7.398      1.028          0          0         0         0
m1047453                  7.25      1.007          0          0         0         0
l2691948                  7.25      1.007          0          0         0         0
p860892                   7.45      1.035          0          0         0         0
n1139543                  7.45      1.035          0          0         0         0
m1089205                 7.467      1.037          0          0         0         0
n1134472                 7.467      1.037          0          0         0         0
l2710542                 7.361      1.022          0          0         0         0
m3032980                  7.48      1.039    0.01108     0.1482   0.02763    0.3694
m3032977                 7.466      1.037    0.01301     0.1742    0.0322    0.4313
m3763618                 7.427      1.032    0.09945      1.339    0.1125     1.515
p1121282                 7.427      1.032          0          0         0         0
l2917330                 7.341       1.02          0          0         0         0
l2861222                  7.34       1.02          0          0         0         0
m1047490                 7.396      1.027    0.09902      1.339   0.09912      1.34
p1164481                 7.398      1.028          0          0         0         0
m1069356                 7.304      1.015          0          0         0         0
m1069363                 7.304      1.015          0          0         0         0
p828359                  7.435      1.033          0          0         0         0
l2878848                 7.434      1.033          0          0         0         0
m1047486                 7.383      1.025      0.101      1.369   0.09022     1.222
l3177665                 7.396      1.027          0          0         0         0
l2805036                 7.523      1.045          0          0         0         0
l2692654                 7.346       1.02          0          0         0         0
m1125929                 7.346       1.02          0          0         0         0
m1047669                 7.418       1.03     0.1069      1.441    0.1065     1.436
m1047672                 7.418       1.03     0.1069      1.441    0.1065     1.436
m1125919                 7.395      1.027    0.02133     0.2884   0.04369    0.5908
p829961                  7.347       1.02          0          0         0         0
m1142819                 7.398      1.028    0.02211     0.2988   0.04775    0.6455
p829960                   7.39      1.026          0          0         0         0
p829979                   7.49       1.04          0          0         0         0
m3036172                  7.49       1.04          0          0         0         0
m1026883                 7.426      1.031          0          0         0         0
m1026898                 7.426      1.031          0          0         0         0
m1089143                 7.312      1.016     0.0249     0.3405   0.04718    0.6453
l3141400                 7.271       1.01          0          0         0         0
m1069481                 7.372      1.024      0.103      1.398   0.08238     1.117
p827507                  7.351      1.021          0          0         0         0
m1026377                 7.297      1.014          0          0         0         0
l3048210                 7.297      1.014          0          0         0         0
e182722                  7.384      1.026          0          0         0         0
m1026331                 7.354      1.022     0.0249     0.3386   0.08122     1.104
l3214055                 7.453      1.035          0          0         0         0
m1108295                 7.376      1.025    0.02111     0.2862   0.04117    0.5581
l2936279                 7.369      1.023    0.02146     0.2913   0.04177    0.5669
m1026704                  7.24      1.006          0          0         0         0
l2841634                  7.24      1.006          0          0         0         0
m1047386                 7.389      1.026          0          0         0         0
m1047379                 7.388      1.026          0          0         0         0
m1089115                 7.487       1.04      0.026     0.3473   0.01625    0.2171
m1026486                  7.37      1.024          0          0         0         0
m1026488                  7.37      1.024          0          0         0         0
l3010570                 7.305      1.015          0          0         0         0
p904451                  7.182     0.9976          0          0         0         0
221-282819               7.182     0.9976          0          0         0         0
m1125968                 7.339      1.019    0.04128     0.5624    0.1069     1.457
p895107                  7.459      1.036          0          0         0         0
n1136999                 7.416       1.03          0          0         0         0
m1069412                 7.288      1.012          0          0         0         0
l2879061                 7.288      1.012          0          0         0         0
m1026947                  7.38      1.025          0          0         0         0
m1142880                 7.419      1.031          0          0         0         0
l2891575                 7.419       1.03          0          0         0         0
m1026848                 7.348      1.021          0          0         0         0
m1026847                 7.347      1.021          0          0         0         0
l2897793                 7.402      1.028          0          0         0         0
m1069521                 7.402      1.028          0          0         0         0
m1069175                 7.471      1.038    0.02205     0.2951   0.01893    0.2534
l3197637                 7.457      1.036          0          0         0         0
l3197635                  7.27       1.01          0          0         0         0
l2804257                  7.37      1.024          0          0         0         0
l2860485                  7.37      1.024          0          0         0         0
l3235945                 7.447      1.034          0          0         0         0
l2842330                 7.447      1.034          0          0         0         0
l2804254                 7.381      1.025          0          0         0         0
m1047752                 7.381      1.025          0          0         0         0
m1166370                  7.49       1.04          0          0         0         0
m1166364                  7.49       1.04          0          0         0         0
m3763619                 7.428      1.032    0.09944      1.339    0.1126     1.517
m3037540                 7.371      1.024          0          0         0         0
l2710509                 7.371      1.024          0          0         0         0
l2763072                  7.28      1.011          0          0         0         0
m4118754                 7.278      1.011          0          0         0         0
m1089196                 7.485       1.04     0.0799      1.067   0.08566     1.144
m1047484                  7.38      1.025     0.1015      1.375   0.08828     1.196
l3010560                 7.379      1.025     0.1018      1.379   0.08714     1.181
l3254219                  7.46      1.036          0          0         0         0
l3254220                  7.46      1.036          0          0         0         0
m1026648                  7.29      1.013          0          0         0         0
m1026647                 7.289      1.012          0          0         0         0
m1089112                 7.481      1.039    0.02583     0.3453   0.01588    0.2123
l2691951                 7.454      1.035          0          0         0         0
m1108433                 7.287      1.012          0          0         0         0
228-1048090-1_int        7.287      1.012          0          0         0         0
m1026327                 7.298      1.014          0          0         0         0
l2841636                 7.294      1.013          0          0         0         0
l2990826                 7.306      1.015    0.05099     0.6979     0.128     1.752
l2911069                 7.328      1.018          0          0         0         0
l2948732                 7.328      1.018          0          0         0         0
m1108260                 7.521      1.045          0          0         0         0
m1108259                 7.521      1.045          0          0         0         0
m1069312                 7.301      1.014          0          0         0         0
p873800                  7.301      1.014          0          0         0         0
m1186078                 7.456      1.036          0          0         0         0
l2876797                 7.382      1.025     0.1232      1.669    0.1176     1.593
r18241                   7.381      1.025      0.124       1.68    0.1183     1.603
l3254227                 7.464      1.037          0          0         0         0
m3037455                 7.464      1.037          0          0         0         0
l3217052                 7.464      1.037          0          0         0         0
p827500                  7.388      1.026          0          0         0         0
l2822861                 7.387      1.026          0          0         0         0
m1047724                 7.402      1.028     0.1126      1.521    0.1091     1.474
m1047722                 7.401      1.028     0.1132      1.529    0.1094     1.479
d5534969-2_int           7.456      1.036    0.07981       1.07    0.1072     1.438
e182729                  7.456      1.036    0.07981       1.07    0.1072     1.438
n1134477                 7.457      1.036     0.0798       1.07    0.1067     1.431
m1166355                 7.387      1.026          0          0         0         0
l2858200                 7.387      1.026          0          0         0         0
m1047699                 7.413       1.03     0.1083      1.461    0.1071     1.445
l2935554                  7.41      1.029     0.1092      1.473    0.1075     1.451
m1047292                 7.369      1.024    0.01662     0.2256   0.06893    0.9353
l2766750                 7.447      1.034          0          0         0         0
l3649300                 7.397      1.027          0          0         0         0
m1047733                   7.4      1.028          0          0         0         0
l3066804                   7.4      1.028          0          0         0         0
m3327098                 7.253      1.007          0          0         0         0
l2691943                 7.253      1.007          0          0         0         0
p829986                   7.35      1.021          0          0         0         0
m1125904                  7.35      1.021          0          0         0         0
n1139550                 7.287      1.012          0          0         0         0
m1026307                  7.25      1.007          0          0         0         0
l3085388                  7.25      1.007          0          0         0         0
l3233413                 7.288      1.012          0          0         0         0
l3122827                 7.304      1.015          0          0         0         0
l2954355                 7.303      1.014          0          0         0         0
p827576                  7.341       1.02          0          0         0         0
n1139256                 7.341       1.02          0          0         0         0
l2952003                 7.309      1.015     0.0509     0.6964    0.1279      1.75
n1136359                 7.458      1.036          0          0         0         0
l3008237                 7.457      1.036          0          0         0         0
m1089102                 7.451      1.035          0          0         0         0
m1089096                  7.45      1.035          0          0         0         0
p895102                  7.334      1.019          0          0         0         0
m1125978                 7.334      1.019          0          0         0         0
m1026706                 7.347       1.02    0.07776      1.058    0.1318     1.794
n1140825                 7.347       1.02    0.07777      1.059    0.1318     1.793
l3141399                 7.428      1.032          0          0         0         0
m1069210                 7.428      1.032          0          0         0         0
m3763624                 7.427      1.032    0.09945      1.339    0.1125     1.515
p1121283                 7.427      1.032          0          0         0         0
m1142839                 7.402      1.028    0.02274     0.3072   0.05142    0.6947
l3067507                 7.466      1.037          0          0         0         0
n1141478                 7.389      1.026          0          0         0         0
m1142826                 7.389      1.026          0          0         0         0
m1108334                 7.421      1.031          0          0         0         0
l2692664                 7.421      1.031          0          0         0         0
l2823544                 7.131     0.9905          0          0         0         0
226-23751                7.392      1.027    0.02048     0.2771   0.03906    0.5285
p827536                  7.364      1.023          0          0         0         0
n1137999                 7.364      1.023          0          0         0         0
l3027157                 7.388      1.026     0.1195      1.617    0.1142     1.546
l2973155                 7.385      1.026     0.1212      1.642    0.1158     1.568
m1186052                 7.472      1.038     0.0108     0.1446   0.02744    0.3672
198-5320                 7.472      1.038     0.0108     0.1445   0.02744    0.3672
l3216346                 7.298      1.014          0          0         0         0
l2858163                 7.297      1.014          0          0         0         0
m1047813                 7.259      1.008          0          0         0         0
l2973149                 7.259      1.008          0          0         0         0
l3086079                 7.489       1.04          0          0         0         0
m1069574                 7.458      1.036          0          0         0         0
l2710530                 7.458      1.036          0          0         0         0
m1069285                 7.389      1.026          0          0         0         0
m4113348                 7.389      1.026          0          0         0         0
l2879074                 7.283      1.012          0          0         0         0
m1026916                 7.394      1.027          0          0         0         0
e193509                  7.402      1.028    0.02283     0.3085   0.05208    0.7035
m1047794                 7.278      1.011          0          0         0         0
m1047796                 7.278      1.011          0          0         0         0
l3027116                 7.378      1.025    0.01302     0.1765   0.06356    0.8615
l2929261                 7.412      1.029          0          0         0         0
m1166375                 7.433      1.032    0.01834     0.2467   0.04363     0.587
p895080                  7.379      1.025          0          0         0         0
l2973156                 7.302      1.014          0          0         0         0
m1069311                 7.332      1.018     0.1104      1.505   0.05302    0.7232
m1069208                 7.438      1.033          0          0         0         0
l2691945                 7.438      1.033          0          0         0         0
n1140820                 7.418       1.03          0          0         0         0
m1026468                 7.371      1.024          0          0         0         0
p901909                  7.371      1.024          0          0         0         0
m1026662                 7.343       1.02    0.07672      1.045    0.1323     1.801
n1141473                   7.3      1.014          0          0         0         0
m1026941                 7.362      1.023          0          0         0         0
m1026942                 7.362      1.023          0          0         0         0
n1137985                 7.402      1.028          0          0         0         0
m1047713                 7.409      1.029     0.1097      1.481    0.1078     1.454
m1047720                 7.406      1.029     0.1112      1.501    0.1083     1.463
m1108298                  7.39      1.027    0.02043     0.2765   0.03984    0.5391
196-36167                 7.39      1.027    0.02047     0.2769   0.04004    0.5418
e183472                  7.322      1.017    0.04724     0.6452    0.1238     1.691
l2989566                 7.316      1.016     0.0492     0.6725    0.1262     1.724
m1010007                 7.248      1.007          0          0         0         0
m1010004                 7.247      1.007          0          0         0         0
p862322                  7.308      1.015    0.05094      0.697    0.1279      1.75
m1089188                 7.338      1.019          0          0         0         0
m1089189                 7.338      1.019          0          0         0         0
l2972704                 7.449      1.035          0          0         0         0
l3263051                 7.449      1.035          0          0         0         0
n1139544                 7.429      1.032          0          0         0         0
l2897776                 7.429      1.032          0          0         0         0
n1230122                 7.182     0.9975          0          0         0         0
l2689726                 7.264      1.009          0          0         0         0
m1142868                 7.384      1.026    0.02835     0.3839   0.06931    0.9386
m1142869                 7.382      1.025    0.02894      0.392   0.07103    0.9622
l2767414                  7.43      1.032          0          0         0         0
m1027027                 7.353      1.021          0          0         0         0
l3270853                 7.353      1.021          0          0         0         0
m1125982                 7.334      1.019          0          0         0         0
m1069572                 7.458      1.036          0          0         0         0
l3066826                 7.458      1.036          0          0         0         0
m1166356                 7.387      1.026          0          0         0         0
l2730187                 7.387      1.026          0          0         0         0
l3122825                 7.301      1.014          0          0         0         0
l2991920                 7.301      1.014          0          0         0         0
n1134474                 7.466      1.037    0.07962      1.066   0.09932      1.33
m1069496                 7.464      1.037    0.07964      1.067    0.1005     1.346
l3122826                 7.369      1.024          0          0         0         0
m1047358                 7.369      1.024          0          0         0         0
l3142078                  7.52      1.044          0          0         0         0
l2879752                  7.52      1.044          0          0         0         0
p850072                  7.306      1.015    0.05098     0.6977     0.128     1.752
221-311609               7.306      1.015    0.05098     0.6977     0.128     1.752
m1027023                 7.336      1.019    0.08707      1.187    0.1437     1.959
l3122815                  7.37      1.024          0          0         0         0
l2724120                 7.446      1.034          0          0         0         0
m1069149                 7.446      1.034          0          0         0         0
l2729429                 7.352      1.021          0          0         0         0
l3215549                 7.273       1.01          0          0         0         0
l2897800                 7.269       1.01          0          0         0         0
l3027156                 7.447      1.034          0          0         0         0
l2860481                 7.447      1.034          0          0         0         0
n1140828                 7.346       1.02    0.07732      1.052    0.1323     1.801
m1026708                 7.346       1.02    0.07727      1.052    0.1323     1.802
m1126020                  7.13     0.9903          0          0         0         0
m1126023                  7.13     0.9903          0          0         0         0
m1026906                 7.369      1.024          0          0         0         0
m1209824                 7.471      1.038          0          0         0         0
m1209828                 7.465      1.037          0          0         0         0
l3195315                 7.441      1.033          0          0         0         0
m1069590                  7.44      1.033          0          0         0         0
m1069595                 7.436      1.033          0          0         0         0
m1027004                 7.265      1.009          0          0         0         0
l2897765                 7.262      1.009          0          0         0         0
m1047314                 7.347       1.02          0          0         0         0
n1137961                 7.347       1.02          0          0         0         0
l2876814                 7.363      1.023     0.1006      1.366    0.1349     1.832
m1026834                 7.361      1.022      0.101      1.372     0.135     1.833
m1008743                 7.246      1.006          0          0         0         0
m1008742                 7.246      1.006          0          0         0         0
p827525                  7.385      1.026    0.09717      1.316    0.1334     1.806
m1026902                 7.383      1.026     0.0974      1.319    0.1339     1.814
n1144663                 7.468      1.037     0.0796      1.066    0.0979     1.311
m1089215                 7.467      1.037    0.07961      1.066   0.09841     1.318
m1069467                 7.392      1.027          0          0         0         0
m1047324                 7.402      1.028   0.006668    0.09008   0.05414    0.7315
l2897780                 7.398      1.028   0.007422     0.1003   0.05549    0.7501
m1069411                  7.34      1.019     0.1097      1.494   0.06476    0.8823
l2711226                 7.399      1.028     0.0222     0.3001   0.04831    0.6529
...